<?xml version="1.0" encoding="UTF-8"?>

<!-- generated on 2022-06-15 00:23:34 by Eclipse SUMO netedit Version 1.12.0
<configuration xmlns:xsi="http://www.w3.org/2001/XMLSchema-instance" xsi:noNamespaceSchemaLocation="http://sumo.dlr.de/xsd/netconvertConfiguration.xsd">

    <output>
        <output-file value="/Users/kihyuk/workspace/sumo/three-lane.net.xml"/>
    </output>

    <processing>
        <offset.disable-normalization value="true"/>
    </processing>

    <junctions>
        <no-turnarounds value="true"/>
    </junctions>

    <report>
        <aggregate-warnings value="5"/>
    </report>

</configuration>
-->

<net version="1.9" junctionCornerDetail="5" limitTurnSpeed="5.50" xmlns:xsi="http://www.w3.org/2001/XMLSchema-instance" xsi:noNamespaceSchemaLocation="http://sumo.dlr.de/xsd/net_file.xsd">

    <location netOffset="0.00,0.00" convBoundary="0.00,0.00,1000.00,0.00" origBoundary="10000000000.00,10000000000.00,-10000000000.00,-10000000000.00" projParameter="!"/>

    <edge id="1" from="1" to="2" priority="-1">
        <lane id="1_0" index="0" speed="40" length="1000.00" shape="0.00,-8.00 1000.00,-8.00"/>
        <lane id="1_1" index="1" speed="40" length="1000.00" shape="0.00,-4.80 1000.00,-4.80"/>
        <lane id="1_2" index="2" speed="40" length="1000.00" shape="0.00,-1.60 1000.00,-1.60"/>
    </edge>

    <junction id="1" type="dead_end" x="0.00" y="0.00" incLanes="" intLanes="" shape="0.00,0.00 0.00,-9.60"/>
    <junction id="2" type="dead_end" x="1000.00" y="0.00" incLanes="1_0 1_1 1_2" intLanes="" shape="1000.00,-9.60 1000.00,0.00"/>

</net>
