<?xml version="1.0" encoding="UTF-8"?>

<!-- generated on 2022-06-15 00:31:39 by Eclipse SUMO netedit Version 1.12.0
-->

<routes xmlns:xsi="http://www.w3.org/2001/XMLSchema-instance" xsi:noNamespaceSchemaLocation="http://sumo.dlr.de/xsd/routes_file.xsd">
    <route id="r_0" edges="1"/>
</routes>
