<?xml version="1.0" encoding="UTF-8"?>

<!-- generated on 2022-06-15 09:46:31 by Eclipse SUMO GUI Version 1.12.0
-->

<configuration xmlns:xsi="http://www.w3.org/2001/XMLSchema-instance" xsi:noNamespaceSchemaLocation="http://sumo.dlr.de/xsd/sumoConfiguration.xsd">

    <input>
        <net-file value="simple.net.xml"/>
        <route-files value="simple.rou.xml"/>
    </input>

</configuration>
